$# LS-DYNA Keyword file created by LS-PrePost(R) V4.10.8-06Nov2023
$# Created on Sep-12-2024 (13:59:34)
$ Copyright (C) 2022 Altair Engineering Inc. ("Holder")
$ Model is licensed by Holder under CC BY-NC 4.0
$ (https://creativecommons.org/licenses/by-nc/4.0/legalcode).
$$ HM_OUTPUT_DECK created 09:18:53 05-24-2022 by HyperMesh Version 2021.0.0.33
$$ Ls-dyna Input Deck Generated by HyperMesh Version  : 2021.0.0.33
$$ Generated using HyperMesh-Ls-dyna 971_R9.3 Template Version : 2021.0.0.33
*KEYWORD_ID MEMORY=650000000
zug_test3_RS
$---+----1----+----2----+----3----+----4----+----5----+----6----+----7----+----8
$                    (1) TITLE CARD.
$---+----1----+----2----+----3----+----4----+----5----+----6----+----7----+----8
*TITLE
$#                                                                         title
tensile test with displacements
*CONTROL_ACCURACY
$$     OSU       INN    PIDOSU      IACC
$#     osu       inn    pidosu      iacc     exacc
         0         2         0         0       0.0
*CONTROL_ENERGY
$$    HGEN      RWEN    SLNTEN     RYLEN
$#    hgen      rwen    slnten     rylen     irgen     maten     drlen     disen
         2         2         2         1         2
$wr         2         2         2         1         2         1         1         1
*CONTROL_HOURGLASS
$$     IHQ        QH
$#     ihq        qh
         1       0.1
*CONTROL_OUTPUT
$$   NPOPT    NEECHO    NREFUP    IACCOP     OPIFS    IPNINT    IKEDIT    IFLUSH
$#   npopt    neecho    nrefup    iaccop     opifs    ipnint    ikedit    iflush
         0         0         0         0       0.0         0       100      5000
$$   IPRTF    IERODE   TET10S8    MSGMAX    IPCURV      GMDT   IP1DBLT      EOCS
$#   iprtf    ierode   tet10s8    msgmax    ipcurv      gmdt   ip1dblt      eocs
         0         0         2        50         0       0.0         0         0
*CONTROL_PARALLEL
$$    NCPU    NUMRHS      ACCU      PARA
$#    ncpu    numrhs     const      para
         1         0         2         0
*CONTROL_SHELL
$$  WRPANG     ESORT     IRNXX    ISTUPD    THEORY       BWC     MITER      PROJ
$#  wrpang     esort     irnxx    istupd    theory       bwc     miter      proj
      40.0         0        -1         1         2         2         1         0
$$ ROTASCL    INTGRD    LAMSHT    CSTYP6    THSHEL
$# rotascl    intgrd    lamsht    cstyp6    thshel
       1.0         0         0         1         0
*CONTROL_TERMINATION
$$  ENDTIM    ENDCYC     DTMIN    ENDENG    ENDMAS     NOSOL
$#  endtim    endcyc     dtmin    endeng    endmas     nosol
$wr      40.0         0       0.0       0.01.000000E8         0
{{TERM}}, 0,0.0, 0.0, 1.000000E8, 0
*CONTROL_TIMESTEP
$$  DTINIT    TSSFAC      ISDO    TSLIMT     DT2MS      LCTM     ERODE     MSIST
$#  dtinit    tssfac      isdo    tslimt     dt2ms      lctm     erode     ms1st
       0.0       0.9         0       0.0       0.0         0         0         0
$$  DT2MSF   DT2MSLC     IMSCL                         RMSCL
$#  dt2msf   dt2mslc     imscl    unused    unused     rmscl     emscl      ihdo
       0.0         0         0                           0.0       0.0         0
$$DATABASE_OPTION -- Control Cards for ASCII output
*DATABASE_BNDOUT
$$      DT    BINARY      LCUR     IOOPT   OPTION1   OPTION2   OPTION3   OPTION4
$#      dt    binary      lcur     ioopt   option1   option2   option3   option4
      0.01         2         0         1         0         0         0         0
*DATABASE_ELOUT
$$      DT    BINARY      LCUR     IOOPT   OPTION1   OPTION2   OPTION3   OPTION4
$#      dt    binary      lcur     ioopt   option1   option2   option3   option4
      0.01         2         0         1         0         0         0         0
*DATABASE_GLSTAT
$$      DT    BINARY      LCUR     IOOPT
$#      dt    binary      lcur     ioopt
      0.01         2         0         1
*DATABASE_NODOUT
$$      DT    BINARY      LCUR     IOOPT      DTHF     BINHF
$#      dt    binary      lcur     ioopt   option1   option2
      0.01         2         0         1       0.0         0
*DATABASE_RBDOUT
$$      DT    BINARY      LCUR     IOOPT
$#      dt    binary      lcur     ioopt
      0.01         2         0         1
*DATABASE_SECFORC
$$      DT    BINARY      LCUR     IOOPT
$#      dt    binary      lcur     ioopt
      0.01         2         0         1
*DATABASE_BINARY_D3DUMP
$$ DT/CYCL        NR
$#    cycl      lcdt      beam     npltc    psetid
  250000.0         0         0         0         0
*DATABASE_BINARY_D3PLOT
$$ DT/CYCL      LCDT      BEAM     NPLTC    PSETID
$wr       2.0         0         0         0         0
$#      dt      lcdt      beam     npltc    psetid
$wr      41.0         0         0         0         0
{{WRITE_D3P}}, 0, 0, 0, 0
$wr         0       0.0       0.0       0.0         0         0
*DATABASE_BINARY_D3THDT
$$ DT/CYCL      LCID
$#      dt      lcdt      beam     npltc    psetid
       0.1         0         0         0         0
*DATABASE_BINARY_INTFOR
$$ DT/CYCL      LCID
$#      dt      lcdt      beam     npltc    psetid
       0.1         0         0         0         0
*DATABASE_BINARY_RUNRSF
$$ DT/CYCL      LCDT/NR
$#    cycl        nr      beam     npltc    psetid
  112500.0         0         0         0         0
*DATABASE_EXTENT_BINARY
$$   NEIPH     NEIPS    MAXINT    STRFLG    SIGFLG    EPSFLG    RLTFLG    ENGFLG
$#   neiph     neips    maxint    strflg    sigflg    epsflg    rltflg    engflg
         0         0         3         1         1         1         2         1
$$  CMPFLG    IEVERP    BEAMIP     DCOMP      SHGE     STSSZ    N3THDT   IALEMAT
$#  cmpflg    ieverp    beamip     dcomp      shge     stssz    n3thdt   ialemat
         0         1         0         1         1         1         2         1
*DATABASE_FORMAT
$$   IFORM   IBINARY
$#   iform   ibinary
         0         1
$wr*DATABASE_CROSS_SECTION_PLANE_ID
$wr$HWCOLOR CROSSSECTIONS       1       4
$wr$#    csid                                                                 title
$wr         1crosssection1
$wr$#    psid       xct       yct       zct       xch       ych       zch    radius
$wr         0  150.3821       5.0       0.0  151.3821       5.0       0.0       0.0
$wr$#    xhev      yhev      zhev      lenl      lenm        id     itype
$wr  150.3821       7.0       3.0       0.0       0.0         0         0
*DATABASE_HISTORY_NODE
$HMNAME OUTPUTBLOCKS       1TimeHistory1
$#     id1       id2       id3       id4       id5       id6       id7       id8
 851, 2028, 10623
*BOUNDARY_PRESCRIBED_MOTION_NODE
$#     nid       dof       vad      lcid        sf       vid     death     birth
      7199         1         2         2       1.0         01.00000E28       0.0
$#     nid       dof       vad      lcid        sf       vid     death     birth
      7219         1         2         2       1.0         01.00000E28       0.0
$#     nid       dof       vad      lcid        sf       vid     death     birth
      7248         1         2         2       1.0         01.00000E28       0.0
$#     nid       dof       vad      lcid        sf       vid     death     birth
      7268         1         2         2       1.0         01.00000E28       0.0
$#     nid       dof       vad      lcid        sf       vid     death     birth
     10899         1         2         2       1.0         01.00000E28       0.0
$#     nid       dof       vad      lcid        sf       vid     death     birth
     10900         1         2         2       1.0         01.00000E28       0.0
$#     nid       dof       vad      lcid        sf       vid     death     birth
     10901         1         2         2       1.0         01.00000E28       0.0
$#     nid       dof       vad      lcid        sf       vid     death     birth
     10902         1         2         2       1.0         01.00000E28       0.0
$#     nid       dof       vad      lcid        sf       vid     death     birth
     10903         1         2         2       1.0         01.00000E28       0.0
$#     nid       dof       vad      lcid        sf       vid     death     birth
     10904         1         2         2       1.0         01.00000E28       0.0
$#     nid       dof       vad      lcid        sf       vid     death     birth
     10905         1         2         2       1.0         01.00000E28       0.0
$#     nid       dof       vad      lcid        sf       vid     death     birth
     10906         1         2         2       1.0         01.00000E28       0.0
$#     nid       dof       vad      lcid        sf       vid     death     birth
     10907         1         2         2       1.0         01.00000E28       0.0
$#     nid       dof       vad      lcid        sf       vid     death     birth
     10908         1         2         2       1.0         01.00000E28       0.0
$#     nid       dof       vad      lcid        sf       vid     death     birth
     10909         1         2         2       1.0         01.00000E28       0.0
$#     nid       dof       vad      lcid        sf       vid     death     birth
     10913         1         2         2       1.0         01.00000E28       0.0
$#     nid       dof       vad      lcid        sf       vid     death     birth
     10914         1         2         2       1.0         01.00000E28       0.0
$#     nid       dof       vad      lcid        sf       vid     death     birth
     10915         1         2         2       1.0         01.00000E28       0.0
$#     nid       dof       vad      lcid        sf       vid     death     birth
     10916         1         2         2       1.0         01.00000E28       0.0
$#     nid       dof       vad      lcid        sf       vid     death     birth
     10917         1         2         2       1.0         01.00000E28       0.0
$ ... 644 like lines cut
*MAT_PIECEWISE_LINEAR_PLASTICITY_TITLE
DP600
$#     mid        ro         e        pr      sigy      etan      fail      tdel
$wr         17.80000E-6     210.0       0.3     200.0       0.0       0.0       0.0
1, 7.8000E-06, {{E}}, 0.3, {{SIG_Y}},  0.0, 0.0, 0.0
$wr         17.80000E-6       0.0       0.3       0.0       0.0       0.0       0.0
$wr       0.0       0.0         3         0       0.0
$#       c         p      lcss      lcsr        vp
       0.0       0.0         0         0       0.0
$#    eps1      eps2      eps3      eps4      eps5      eps6      eps7      eps8
       0.0       0.0       0.0       0.0       0.0       0.0       0.0       0.0
$#     es1       es2       es3       es4       es5       es6       es7       es8
       0.0       0.0       0.0       0.0       0.0       0.0       0.0       0.0
*MAT_ELASTIC_TITLE
MAT_DUMMY
$#     mid        ro         e        pr        da        db  not used
         37.80000E-6     210.0       0.3       0.0       0.0       0.0
*SECTION_SHELL_TITLE
Shell
$#   secid    elform      shrf       nip     propt   qr/irid     icomp     setyp
         1         2    0.8333         3       1.0         0         0         1
$#      t1        t2        t3        t4      nloc     marea      idof    edgset
       1.5       1.5       1.5       1.5       0.0       0.0       0.0         0
*PART
$HWCOLOR COMPS       3       5
$#                                                                         title
Zugzone
$#     pid     secid       mid     eosid      hgid      grav    adpopt      tmid
         3         1         1         0         0         0         0         0
$
$
$
$
$
$
$
*DEFINE_CURVE_TITLE
imposed_disp w pause
$#    lcid      sidr       sfa       sfo      offa      offo    dattyp     lcint
         7         0       1.0       1.0       0.0       0.0         0         0
$#                a1                  o1
                 0.0                 0.0
                 5.0                 0.0
                10.0                10.0
                30.0                10.0
                40.0                40.0
                50.0                50.0
*DEFINE_CURVE_TITLE
imposed_disp straight line
$#    lcid      sidr       sfa       sfo      offa      offo    dattyp     lcint
         1         0       1.0       1.0       0.0       0.0         0         0
$#                a1                  o1
                 0.0                 0.0
                50.0                50.0
*DEFINE_CURVE_TITLE
curve_nul
$#    lcid      sidr       sfa       sfo      offa      offo    dattyp     lcint
         2         0       1.0       1.0       0.0       0.0         0         0
$#                a1                  o1
                 0.0                 0.0
              1000.0                 0.0
*DEFINE_CURVE_TITLE
Mat_Curev Quasi-static
$#    lcid      sidr       sfa       sfo      offa      offo    dattyp     lcint
         3         0       1.0     0.001       0.0       0.0         0         0
$#                a1                  o1
                 0.0               306.0
             0.00112               415.0
             0.00218               445.0
               0.003               461.0
             0.00404               474.0
             0.00517               489.0
             0.00613               498.0
              0.0071               505.0
             0.00806               512.0
             0.00901               522.0
              0.0102               530.0
              0.0121               543.0
               0.013               550.0
               0.014               555.0
               0.015               561.0
              0.0159               567.0
              0.0171               572.0
              0.0181               577.0
              0.0204               592.0
              0.0303               632.0
$ ... 14 like lines cut
*DEFINE_CURVE_TITLE
imposed_disp ori
$#    lcid      sidr       sfa       sfo      offa      offo    dattyp     lcint
        11         0       1.0       1.0       0.0       0.0         0         0
$#                a1                  o1
                 0.0                 0.0
$wr1.00000000000000E-03                 0.0
              1000.0              1000.0
*ELEMENT_SHELL
$#   eid     pid      n1      n2      n3      n4      n5      n6      n7      n8
   10152       3   10930   11413   11438   11417       0       0       0       0
   10153       3   11417   11438   11410   10931       0       0       0       0
   10154       3   11438   11409   10927   11410       0       0       0       0
   10155       3   11413   10928   11409   11438       0       0       0       0
   10156       3   10931   11410   11439   11402       0       0       0       0
   10157       3   11402   11439   11401   10924       0       0       0       0
   10158       3   11439   11405   10925   11401       0       0       0       0
   10159       3   11410   10927   11405   11439       0       0       0       0
   10160       3   10914   11384   11440   11383       0       0       0       0
   10161       3   11383   11440   11386   10915       0       0       0       0
   10162       3   11440   11417   10931   11386       0       0       0       0
   10163       3   11384   10930   11417   11440       0       0       0       0
   10164       3   10915   11386   11441   11385       0       0       0       0
   10165       3   11385   11441   11388   10916       0       0       0       0
   10166       3   11441   11402   10924   11388       0       0       0       0
   10167       3   11386   10931   11402   11441       0       0       0       0
   10168       3   10899   11361   11442   11362       0       0       0       0
   10169       3   11362   11442   11415   10932       0       0       0       0
   10170       3   11442   11364   10929   11415       0       0       0       0
   10171       3   11361   10900   11364   11442       0       0       0       0
$ ... 844 like lines cut
*NODE
$#   nid               x               y               z      tc      rc
     851           65.74            15.0             0.0       0       0
     891          43.241             5.0             0.0       0       0
    2028          145.74            15.0             0.0       0       0
    6991          43.241            25.0             0.0       0       0
    7199       -19.25968             0.0             0.0       0       0
    7219       -19.25968            30.0             0.0       0       0
    7248        23.74866            30.0             0.0       0       0
    7268        23.74866             0.0             0.0       0       0
    7853        30.01162            30.0             0.0       0       0
    7873        30.01162    1.776357e-15             0.0       0       0
    9306         168.239             5.0             0.0       0       0
    9321        187.7313            30.0             0.0       0       0
    9342        181.4684             0.0             0.0       0       0
    9439        187.7313             0.0             0.0       0       0
    9444         168.239            25.0             0.0       0       0
    9479        230.7397            30.0             0.0       0       0
    9541        230.7397             0.0             0.0       0       0
    9994        181.4684            30.0             0.0       0       0
   10607         168.239            10.0             0.0       0       0
   10608         168.239            15.0             0.0       0       0
$ ... 961 like lines cut
$$
$$ Sets Defined In HyperMesh
$$
$wr*SET_NODE_LIST
$wr$HMSET
$wr$HMNAME SETS       1top
$wr         1       0.0       0.0       0.0       0.0MECH      1
$wr*SET_NODE_LIST
$wr$HMSET
$wr$HMNAME SETS       2bottom
$wr         2       0.0       0.0       0.0       0.0MECH      1
*END
